LAMMPS (29 Aug 2024)

units metal

lattice          fcc 5.78077957481481
Lattice spacing in x,y,z = 5.7807796 5.7807796 5.7807796
region           whole block 0 5 0 5 0 5 units lattice
create_box       3  whole
Created orthogonal box = (0 0 0) to (28.903898 28.903898 28.903898)
create_atoms     1 region whole
Created 500 atoms
lattice          fcc 5.78077957481481  origin 0.5 0 0
Lattice spacing in x,y,z = 5.7807796 5.7807796 5.7807796
create_atoms     2 region whole
Created 500 atoms

mass             1 22.989769
mass             2 35.453
mass             3 39.0983
# potential

pair_style hybrid/overlay mlip load_from=../../pot.almtp momb 15.0 0.75 20.0
pair_coeff * * mlip

pair_coeff 1 1 momb 0 1.02 3.72 59.17844 2.288
pair_coeff 2 2 momb 0 2.52 4.4 52.54548 3.278
pair_coeff 3 3 momb 0 0.87 4.56 104.46912 1.485
pair_coeff 1 2 momb 0 1.8 2.82 55.76342471 2.783
pair_coeff 2 3 momb 0 1.75 3.14 74.09035062 1.560100958

group           Na type 1
500 atoms in group Na
group           Cl type 2
500 atoms in group Cl
set 		group Na type/fraction 3 0.00 12393
Setting atom values ...
  0 settings made for type/fraction
group           K type 3
0 atoms in group K
variable random1        equal 12345+0
variable random2        equal 54313+0

velocity all create 700 12345 rot yes dist gaussian mom yes

variable xcm equal xcm(all,x)
variable ycm equal xcm(all,y)
variable zcm equal xcm(all,z)

fix     1 all npt temp 700 700 0.1 aniso 0 0 1 drag 0.2
run     5000

CITE-CITE-CITE-CITE-CITE-CITE-CITE-CITE-CITE-CITE-CITE-CITE-CITE

Your simulation uses code contributions which should be cited:

- Pair style momb: doi:10.1021/jp412098n

@Article{pair_momb_2015,
title = {A Force Field for Describing the Polyvinylpyrrolidone-Mediated
    Solution-Phase Synthesis of Shape-Selective {Ag} Nanoparticles},
volume = {118},
number = {6},
url = {https://doi.org/10.1021/jp412098n},
doi = {10.1021/jp412098n},
journal = {J.~Phys.\ Chem.~C},
author = {Zhou, Ya and Wissam A. Saidi and Kristen A. Fichthorn},
year = {2014},
pages = {3366--3374}
}

CITE-CITE-CITE-CITE-CITE-CITE-CITE-CITE-CITE-CITE-CITE-CITE-CITE

Step          Temp          E_pair         E_mol          TotEng         Press          Volume
0   700           -3456.1525      0             -3365.7609     -14986.528      24147.337
Loop time of 188.12 on 48 procs for 5000 steps with 1000 atoms

unfix   1

fix 	1 all nph aniso 0 0 1 fixedpoint 13.0040915219387 13.003289485793 13.0133701763301
fix 	2 all langevin 700 700 0.1 54313 zero yes

run     10000
Step          Temp          E_pair         E_mol          TotEng         Press          Volume
5000   696.04407     -3357.2004      0             -3267.3196      186.95041      24138.803
Loop time of 379.75 on 48 procs for 10000 steps with 1000 atoms

unfix   1
unfix   2

fix     1 all npt temp 700 700 0.1 iso 0 0 1 drag 0.2
run     5000
Step          Temp          E_pair         E_mol          TotEng         Press          Volume
15000   684.42331     -3359.6591      0             -3271.2789      816.18741      24035.865
Loop time of 185.014 on 48 procs for 5000 steps with 1000 atoms

unfix   1

reset_timestep 0

compute 1 Na msd
compute 2 Cl msd
compute 3 K msd

variable msdNa equal c_1[4]
variable msdCl equal c_2[4]
variable msdK equal c_3[4]

thermo           100
thermo_style     custom step temp pe press vol lx ly lz density  v_msdNa v_msdCl v_msdK

thermo_modify lost ignore

#outputs
fix     1 all nph aniso 0 0 1 fixedpoint 13.0007125178681 12.9998942500283 13.0100119718152
fix     2 all langevin 700 700 0.1 54313 zero yes

run	20000
Step          Temp          PotEng         Press          Volume           Lx             Ly             Lz          Density        v_msdNa        v_msdCl         v_msdK
0   676.28818     -3358.1822     -1491.9926      24205.038      28.940234      29.079254      28.762092      2.0046755      2.4574866e-33  7.9768166e-33  0
Averages over the last 101 of 201 rows, steps 10000 to 20000:
Temp PotEng Press Volume Lx Ly Lz Density v_msdNa v_msdCl v_msdK
699.587 -3359.34 -15.7746 24108.6 28.8815 28.8835 28.9008 2.01272 0.349964 0.299627 0
Loop time of 755.085 on 48 procs for 20000 steps with 1000 atoms

unfix   2
unfix	1
