LAMMPS (29 Aug 2024)

units metal

lattice          fcc 5.78077957481481
Lattice spacing in x,y,z = 5.7807796 5.7807796 5.7807796
region           whole block 0 5 0 5 0 5 units lattice
create_box       3  whole
Created orthogonal box = (0 0 0) to (28.903898 28.903898 28.903898)
create_atoms     1 region whole
Created 500 atoms
lattice          fcc 5.78077957481481  origin 0.5 0 0
Lattice spacing in x,y,z = 5.7807796 5.7807796 5.7807796
create_atoms     2 region whole
Created 500 atoms

mass             1 22.989769
mass             2 35.453
mass             3 39.0983
# potential

pair_style hybrid/overlay mlip load_from=../../pot.almtp momb 15.0 0.75 20.0
pair_coeff * * mlip

pair_coeff 1 1 momb 0 1.02 3.72 59.17844 2.288
pair_coeff 2 2 momb 0 2.52 4.4 52.54548 3.278
pair_coeff 3 3 momb 0 0.87 4.56 104.46912 1.485
pair_coeff 1 2 momb 0 1.8 2.82 55.76342471 2.783
pair_coeff 2 3 momb 0 1.75 3.14 74.09035062 1.560100958

group           Na type 1
500 atoms in group Na
group           Cl type 2
500 atoms in group Cl
set 		group Na type/fraction 3 0.00 12393
Setting atom values ...
  0 settings made for type/fraction
group           K type 3
0 atoms in group K

variable random1        equal 12345+0
variable random2        equal 54313+0

velocity all create 100 12345 rot yes dist gaussian mom yes

variable xcm equal xcm(all,x)
variable ycm equal xcm(all,y)
variable zcm equal xcm(all,z)

thermo           100
thermo_style     custom step temp pe press vol lx ly lz density

fix     1 all npt temp 100 100 0.1 aniso 0 0 1 drag 0.2
run     5000

CITE-CITE-CITE-CITE-CITE-CITE-CITE-CITE-CITE-CITE-CITE-CITE-CITE

Your simulation uses code contributions which should be cited:

- Pair style momb: doi:10.1021/jp412098n

@Article{pair_momb_2015,
title = {A Force Field for Describing the Polyvinylpyrrolidone-Mediated
    Solution-Phase Synthesis of Shape-Selective {Ag} Nanoparticles},
volume = {118},
number = {6},
url = {https://doi.org/10.1021/jp412098n},
doi = {10.1021/jp412098n},
journal = {J.~Phys.\ Chem.~C},
author = {Zhou, Ya and Wissam A. Saidi and Kristen A. Fichthorn},
year = {2014},
pages = {3366--3374}
}

CITE-CITE-CITE-CITE-CITE-CITE-CITE-CITE-CITE-CITE-CITE-CITE-CITE

Step          Temp          PotEng         Press          Volume           Lx             Ly             Lz          Density
0   100           -3456.1525     -18413.663      24147.337      28.903898      28.903898      28.903898      2.0094657
Averages over the last 26 of 51 rows, steps 2500 to 5000:
Temp PotEng Press Volume Lx Ly Lz Density
99.8299 -3452.54 -22.5225 22725.4 28.3242 28.3244 28.3266 2.13521
Loop time of 316.269 on 24 procs for 5000 steps with 1000 atoms

unfix   1

fix 	1 all nph aniso 0 0 1 fixedpoint 13.0347516721121 13.0347079597951 13.0347624163015
fix 	2 all langevin 100 100 0.1 54313 zero yes

run     10000
Step          Temp          PotEng         Press          Volume           Lx             Ly             Lz          Density
5000   108.07492     -3452.8899     -577.59221      22771.467      28.343945      28.34482       28.34373       2.1308793
Averages over the last 51 of 101 rows, steps 10000 to 15000:
Temp PotEng Press Volume Lx Ly Lz Density
99.5655 -3452.5 4.77729 22721.9 28.3236 28.3245 28.3225 2.13554
Loop time of 631.933 on 24 procs for 10000 steps with 1000 atoms

unfix   1
unfix   2

fix     1 all npt temp 100 100 0.1 iso 0 0 1 drag 0.2
run     5000
Step          Temp          PotEng         Press          Volume           Lx             Ly             Lz          Density
15000   104.78715     -3452.8669     -658.17883      22770.048      28.370614      28.334455      28.325682      2.131012
Averages over the last 26 of 51 rows, steps 17500 to 20000:
Temp PotEng Press Volume Lx Ly Lz Density
99.2882 -3452.58 0.389389 22722.2 28.3507 28.3146 28.3058 2.13551
Loop time of 321.64 on 24 procs for 5000 steps with 1000 atoms

unfix   1

reset_timestep 0

compute 1 Na msd
compute 2 Cl msd
compute 3 K msd

variable msdNa equal c_1[4]
variable msdCl equal c_2[4]
variable msdK equal c_3[4]

thermo           100
thermo_style     custom step temp pe press vol lx ly lz density  v_msdNa v_msdCl v_msdK

thermo_modify lost ignore

#outputs

fix     1 all nph aniso 0 0 1 fixedpoint 13.0356678647522 13.0356229847247 13.0356771579199
fix     2 all langevin 100 100 0.1 54313 zero yes

run	20000
Step          Temp          PotEng         Press          Volume           Lx             Ly             Lz          Density        v_msdNa        v_msdCl         v_msdK
0   99.615279     -3452.1971     -3.8385616      22725.957      28.35229       28.316154      28.307387      2.1351464      7.8935394e-32  8.4996681e-32  0
Averages over the last 101 of 201 rows, steps 10000 to 20000:
Temp PotEng Press Volume Lx Ly Lz Density v_msdNa v_msdCl v_msdK
99.8086 -3452.56 5.05152 22721.6 28.3234 28.3232 28.3239 2.13556 0.0377232 0.0329242 0
Loop time of 1260.34 on 24 procs for 20000 steps with 1000 atoms

unfix   2
unfix	1
